*KEYWORD
$
$*******************************************************************************
$ Copyright © 2025 Coventry University
$ This model is licensed under the Creative Commons Attribution-NonCommercial 4.0  - International License (CC BY-NC 4.0).
$ You may use, share, and adapt the model for non-commercial purposes, with appropriate attribution.
$ Full license text: https://creativecommons.org/licenses/by-nc/4.0/legalcode
$*******************************************************************************
$ Adult Headform LS-Dyna Model
$ ECE127
$ 4.5kg - Model validated drop 2.7m/s
$
$ Coventry University 2025
$ Project SENTINEL - Road Safety Trust Project
$ Website: https://sentinel-rtc.coventry.ac.uk/
$ ----------------------------------------------------------------------------
$ UNIT :  mm, ton, sec, N, MPa
$ ----------------------------------------------------------------------------
$
$
$
$ =============
$ CONTROL cards
$ =============
$
*CONTROL_ACCURACY
         0         2         0         0
*CONTROL_BULK_VISCOSITY
       1.5      0.06         1         0
*CONTROL_CONTACT
       0.1       1.0         2         0         1         1         2         0
         0         0        10         0       4.0         0         0         0
       0.0       0.0       0.0       0.0       0.0       0.0       0.0       0.0
         1         0         0         0         0         0       0.0
         0         0         1       0.0       1.0         0       1.0         0
*CONTROL_ENERGY
         2         0         0         0
*CONTROL_OUTPUT
         0         0         0         0       0.0         0       200      5000
         0         0         2         0         0       0.0         0         0
         2         0         1         0         0         0      10.0
$
$
$ ==============
$ DATABASE cards
$ ==============
$
$
*DATABASE_HISTORY_NODE_ID
      5211Head_Accelerometer                                                    
$
$
$ ====================
$ MAT (Material) cards
$ ====================
$
*MAT_RIGID_TITLE
Skull
         1    2.9E-9   70000.0      0.28       0.0       0.0       0.0          
       0.0       0.0       0.0
         0       0.0       0.0       0.0       0.0       0.0
$
*MAT_OGDEN_RUBBER_TITLE
Skin
         2    1.3E-9     0.495         0         0     303.0      2.73       0.0
      19.8     -75.2     176.2       0.0       0.0       0.0       0.0       0.0
    3.5005    2.0845   0.50431       0.0       0.0       0.0       0.0       0.0
   0.47876       0.0         0
.079165995     0.001
  0.020845.099999994
$
*MAT_RIGID_TITLE
Accel Block
         3    7.8E-9  207000.0      0.28       0.0       0.0       0.0          
       0.0       0.0       0.0
         0       0.0       0.0       0.0       0.0       0.0
$
*MAT_RIGID_TITLE
Back Plate
         4    2.9E-9   70000.0      0.28       0.0       0.0       0.0          
       0.0       0.0       0.0
         0       0.0       0.0       0.0       0.0       0.0
$
$
$
$ =============
$ SECTION cards
$ =============
$
*SECTION_SOLID_TITLE
Skull
         1         1         0
$
Skin
         2         2         1
$
Accel Block
         3         1         0
$
Back Plate
         4         1         0
$
$
$
$ ===============
$ HOURGLASS cards
$ ===============
$
*HOURGLASS
         1         7       1.0         0       1.5      0.06       1.0       1.0
$
$
$ ==========
$ PART cards
$ ==========
$
*PART
Skull
         1         1         1         0         0         0         0         0
$
*PART
Skin
         2         2         2         0         1         0         0         0
$
*PART
Accel Block
         3         3         3         0         0         0         0         0
$
*PART
Back Plate
         4         4         4         0         0         0         0         0
$
$
$
$ ==========
$ NODE cards
$ ==========
$
*NODE
       1 -119.5037524775-.00711013558824   53.9381664251       0       0
       2-117.93522212182-.0071101355882452.0688647386194       0       0
       3-119.286853423995.7562974165834654.1201663409091       0       0
       4 -117.71832306835.7562974165834552.2508646544283       0       0
       5-118.6382582894311.464201687674954.6644022791008       0       0
       6-117.0697279337411.464201687674952.7951005926203       0       0
       7-117.5641980794517.061628596616255.5656458051558       0       0
       8-115.9956677237617.061628596616253.6963441186759       0       0
       9-116.0750252720722.4946801023582 56.815210158592       0       0
      10-114.5064949163822.494680102358254.9459084721113       0       0
      11-114.1850861946827.711014403882458.4010573413765       0       0
      12-112.6165558389927.711014403882456.5317556548959       0       0
      13-111.9125708793532.660416300211360.3079241043057       0       0
      14-110.3440405236832.660416300211358.4386224178251       0       0
      15-109.2793704253737.295218590417362.5174416340581       0       0
      16-107.7108400696937.295218590417360.6481399475774       0       0
      17-106.3108442748841.570772473631265.0083308320728       0       0
      18 -104.742313919241.570772473631263.1390291455921       0       0
      19 -121.9542545999-.0071101355882551.8435720229431       0       0
      20-121.925635799942.31895710368E-549.3143393917621       0       0
$ ... 36269 like lines cut
$
$
$ =============
$ ELEMENT cards
$ =============
$
*ELEMENT_SOLID
       1       2       1      19      21       3       2      20      22       4
       2       2      19      37      39      21      20      38      40      22
       3       2       3      21      23       5       4      22      24       6
       4       2      21      39      41      23      22      40      42      24
       5       2       5      23      25       7       6      24      26       8
       6       2      23      41      43      25      24      42      44      26
       7       2       7      25      27       9       8      26      28      10
       8       2      25      43      45      27      26      44      46      28
       9       2       9      27      29      11      10      28      30      12
      10       2      27      45      47      29      28      46      48      30
      11       2      11      29      31      13      12      30      32      14
      12       2      29      47      49      31      30      48      50      32
      13       2      13      31      33      15      14      32      34      16
      14       2      31      49      51      33      32      50      52      34
      15       2      15      33      35      17      16      34      36      18
      16       2      33      51      53      35      34      52      54      36
      17       2       2      20      22       4      55      64      65      56
      18       2      20      38      40      22      64      73      74      65
      19       2       4      22      24       6      56      65      66      57
      20       2      22      40      42      24      65      74      75      66
$ ... 3692 like lines cut
$    EID     PID
$     N1      N2      N3      N4      N5      N6      N7      N8
    3713       1    5271    5239    5238    5277    5348    5351    5350    5349
    3714       1    5277    5238    5237    5278    5349    5350    5353    5352
    3715       1    5278    5237    5236    5235    5352    5353    5355    5354
    3716       1    5293    5272    5279    5273    5356    5359    5358    5357
    3717       1    5272    5271    5277    5279    5359    5348    5349    5358
    3718       1    5234    5233    5276    5280    5360    5363    5362    5361
    3719       1    5279    5280    5276    5273    5358    5361    5362    5357
    3720       1    5235    5234    5280    5278    5354    5360    5361    5352
    3721       1    5278    5280    5279    5277    5352    5361    5358    5349
    3722       1    5274    5273    5276    5281    5364    5357    5362    5365
    3723       1    5281    5276    5233    5232    5365    5362    5363    5366
$    EID     PID
$     N1      N2      N3      N4      N5      N6
    3724       1    5281    5274    5364    5365    5275    5275    5367    5367
    3725       1    5281    5232    5231    5230    5365    5366    5369    5368
    3726       1    5281    5275    5367    5365    5230    5230    5368    5368
    3727       1    5299    5298    5296    5295    5370    5373    5372    5371
    3728       1    5294    5295    5371    5374    5299    5299    5370    5370
    3729       1    5299    5294    5245    5244    5370    5374    5376    5375
    3730       1    5241    5298    5299    5242    5377    5373    5370    5378
    3731       1    5242    5299    5244    5243    5378    5370    5375    5379
    3732       1    5296    5298    5300    5297    5372    5373    5381    5380
    3733       1    5298    5241    5240    5300    5373    5377    5382    5381
    3734       1    5240    5239    5271    5300    5382    5351    5348    5381
    3735       1    5300    5297    5380    5381    5271    5271    5348    5348
    3736       1    5301    5291    5290    5303    5383    5386    5385    5384
    3737       1    5303    5290    5289    5304    5384    5385    5388    5387
    3738       1    5304    5289    5248    5247    5387    5388    5390    5389
    3739       1    5296    5302    5305    5295    5372    5392    5391    5371
    3740       1    5302    5301    5303    5305    5392    5383    5384    5391
    3741       1    5246    5245    5294    5306    5393    5376    5374    5394
    3742       1    5306    5294    5295    5305    5394    5374    5371    5391
    3743       1    5247    5246    5306    5304    5389    5393    5394    5387
$ ... 10401 like lines cut
$    EID     PID
$     N1      N2      N3      N4      N5      N6
   14145       4   16825   16892   17127   17125   16826   16826   17126   17126
$    EID     PID
$     N1      N2      N3      N4      N5      N6      N7      N8
   14146       4   16826   16827   16828   16892   17126   17128   17129   17127
   14147       4   16825   16892   16893   16824   17125   17127   17130   17131
   14148       4   16894   16823   16824   16893   17132   17133   17131   17130
   14149       4   16823   16822   17134   17133   16894   16894   17132   17132
   14150       4   16895   16892   16828   16829   17135   17127   17129   17136
   14151       4   16893   16895   17135   17130   16892   16892   17127   17127
   14152       4   16894   16896   16821   16822   17132   17137   17138   17134
   14153       4   16829   16830   16831   16895   17136   17139   17140   17135
   14154       4   16893   16897   16896   16894   17130   17141   17137   17132
   14155       4   16893   16895   16898   16897   17130   17135   17142   17141
   14156       4   16896   16899   16820   16821   17137   17143   17144   17138
   14157       4   16895   16831   16832   16898   17135   17140   17145   17142
   14158       4   16899   16900   16819   16820   17143   17146   17147   17144
   14159       4   16899   16903   17148   17143   16896   16896   17137   17137
   14160       4   16896   16897   16901   16903   17137   17141   17149   17148
   14161       4   16897   16898   16902   16901   17141   17142   17150   17149
   14162       4   16900   16904   16818   16819   17146   17151   17152   17147
   14163       4   16898   16832   16833   16902   17142   17145   17153   17150
   14164       4   16903   16905   16900   16899   17148   17154   17146   17143
   14165       4   16817   16818   16904   16906   17155   17152   17151   17156
$ ... 17419 like lines cut
*ELEMENT_SEATBELT_ACCELEROMETER
         1      5211      5220      5208         0         0       0.0
$
$
$ =================
$ CONSTRAINED cards
$ =================
$
*CONSTRAINED_EXTRA_NODES_SET
         1         1         0
$
$: Cross-reference summary for SET_NODE 1
$:---------------------------------------
$: CONSTRAINED_EXTRA_NODES <No label>
$
*SET_NODE_LIST_TITLE
fixed_skin_nodes
         1       0.0       0.0       0.0       0.0MECH      
        37        39        40        38        41        42        43        44
        45        46        47        48        49        50        51        52
        53        54       114       115       116       117       118       119
       120       121       122       123       124       125       126       127
       128       129       969       968       971       970       973       972
       975       974       977       976       979       978       981       980
       983       982      1041      1040      1043      1042      1045      1044
      1047      1046      1049      1048      1051      1050      1053      1052
      1055      1054      1853      1855      1854      1852      1857      1856
      1859      1858      1861      1860      1863      1862      1865      1864
      1867      1866      1869      1868      1926      1925      1928      1927
      1930      1929      1932      1931      1934      1933      1936      1935
      1938      1937      2728      2729      2730      2731      2732      2733
      2734      2735      2736      2737      2738      2739      2740      2741
      2742      2743      2796      2797      2798      2799      2800      2801
      2802      2803      2804      2805      2806      2807      2808      2809
         1         3        21        19         5        23         7        25
         9        27        11        29        13        31        15        33
        17        35        82        98        84       100        86       102
        88       104        90       106        92       108        94       110
$ ... 60 like lines cut
$
*CONSTRAINED_RIGID_BODIES
         1         3         0
         1         4         0
$
$
$ =============
$ INITIAL cards
$ =============
$
*INITIAL_VELOCITY_GENERATION
$HC_ID;1
$...>....1....>....2....>....3....>....4....>....5....>....6....>....7....>....8
$       ID      STYP     OMEGA        VX        VY        VZ     IVATN      ICID
         1         1       0.0 703.98779       0.0-2627.3184         0         0
$       XC        YC        ZC        NX        NY        NZ     PHASE    IRIGID
       0.0       0.0       0.0       0.0       0.0       0.0         0         1
$
$
$ =============
$ CONTACT cards
$ =============
$
*CONTACT_AUTOMATIC_SURFACE_TO_SURFACE_ID
         1Head_Self_contact                                                     
         2         1         3         3         0         0         0         0
       0.8       0.8       0.0       0.0       0.0         0       0.0    1.0E17
       0.0       0.0       0.5       0.5       1.0       1.0       1.0       1.0
         2       0.1         0     1.025       3.0         2         0         1
       0.0         0         0         0         0         0       0.0       0.0
         0         1       0.0       0.0                           0.0         0
$
$
*END
