*KEYWORD
$> Include file: C:\Users\aa3425\OneDrive - Coventry University\RESEARCH\ROAD_SAFETY_TRUST_PROJECT\SENTINEL\COMPUTER_MODELS\1. EURONCAP_ADULT_HEAD_VALIDATION_65DEG\ECE127_CAE_HEAD_MODEL_FOR_SENTINEL\ECE127_VALIDATION_MODEL_OPENRADIOSS\INCL\rigid_plate.key
$> (Used by master file: C:\Users\aa3425\OneDrive - Coventry University\RESEARCH\ROAD_SAFETY_TRUST_PROJECT\SENTINEL\COMPUTER_MODELS\1. EURONCAP_ADULT_HEAD_VALIDATION_65DEG\ECE127_CAE_HEAD_MODEL_FOR_SENTINEL\ECE127_VALIDATION_MODEL_OPENRADIOSS\VERTICAL_CALIBRATION_1_MATERIAL.key)
$> 
$> Primer21.1 created on: Fri Jun 20 19:27:12 2025
$> LS-DYNA version: R11.0
$> 
$> *INCLUDE_TRANSFORM data written in UNTRANSFORMED position
$
$
$
$
$
$
$
$
$
$
$
$
$
$
$ ===============
$ PARAMETER cards
$ ===============
$
$ ====================
$ MAT (Material) cards
$ ====================
$
$ ===============
$ PARAMETER cards
$ ===============
$
$
$
$ ====================
$ MAT (Material) cards
$ ====================
$
$> end_saved_comments
$
$
$
$ ===============
$ PARAMETER cards
$ ===============
$
$
$
$ ====================
$ MAT (Material) cards
$ ====================
$
*MAT_RIGID
         5    2.5E-9   70000.0      0.22       0.0       0.0       0.0          
       1.0       7.0       7.0
         0       0.0       0.0       0.0       0.0       0.0
$
$
$
$ =============
$ SECTION cards
$ =============
$
*SECTION_SHELL
         5         2       0.0         0       0.0       0.0         0         0
&THICK    &THICK    &THICK    &THICK           0.0       0.0       0.0         0
$
$
$
$ ==========
$ PART cards
$ ==========
$
*PART
Plate
         5         5         5         0         0         0         0         0
$
$
$
$ ==========
$ NODE cards
$ ==========
$
*NODE
   36151       -487.3327          -500.02.80000035104E-5       0       0
   36152      -477.33276          -500.0-1.5999996492E-5       0       0
   36153      -467.33286          -500.0 2.3000003381E-5       0       0
   36154      -457.33282          -500.02.00000033885E-5       0       0
   36155      -447.33282          -500.0-8.9999965098E-6       0       0
   36156      -437.33279          -500.04.20000034183E-5       0       0
   36157       -427.3327          -500.03.90000033974E-5       0       0
   36158      -417.33279          -500.01.00000033569E-5       0       0
   36159      -407.33273          -500.03.40000034953E-5       0       0
   36160      -397.33286          -500.03.20000035003E-5       0       0
   36161      -387.33276          -500.04.20000035035E-5       0       0
   36162      -377.33276          -500.0 5.3000003291E-5       0       0
   36163      -367.33273          -500.0 5.0000003526E-5       0       0
   36164      -357.33276          -500.0 3.5000003578E-5       0       0
   36165      -347.33279          -500.0-8.9999964956E-6       0       0
   36166      -337.33286          -500.04.30000035436E-5       0       0
   36167      -327.33282          -500.01.30000033636E-5       0       0
   36168      -317.33286          -500.03.80000034284E-5       0       0
   36169      -307.33282          -500.03.50000034643E-5       0       0
   36170      -297.33279          -500.01.90000035474E-5       0       0
$ ... 10181 like lines cut
$
$
$ =============
$ ELEMENT cards
$ =============
$
*ELEMENT_SHELL
       1       5   36151   36152   36253   36252
       2       5   36152   36153   36254   36253
       3       5   36153   36154   36255   36254
       4       5   36154   36155   36256   36255
       5       5   36155   36156   36257   36256
       6       5   36156   36157   36258   36257
       7       5   36157   36158   36259   36258
       8       5   36158   36159   36260   36259
       9       5   36159   36160   36261   36260
      10       5   36160   36161   36262   36261
      11       5   36161   36162   36263   36262
      12       5   36162   36163   36264   36263
      13       5   36163   36164   36265   36264
      14       5   36164   36165   36266   36265
      15       5   36165   36166   36267   36266
      16       5   36166   36167   36268   36267
      17       5   36167   36168   36269   36268
      18       5   36168   36169   36270   36269
      19       5   36169   36170   36271   36270
      20       5   36170   36171   36272   36271
$ ... 9980 like lines cut
$
*END
